LAMMPS (23 Jun 2022 - Update 3)
##################################################################################
#                             Variable to change                                 #
##################################################################################

variable        TEMPERATURE equal    300.0  # Temperature in K
variable        PRESSURE    equal     10.0  # Pressure in atm
variable        TIMESTEP    equal      1.0  # dt in fs
variable        NEIGH_TIME  equal      5    # neigh_modify every x dt
variable        NEIGH_DELAY equal     10    # neigh_modify delay
variable        EQUIL_TIME  equal   1000    # equilibrate system for # timesteps in NVT
variable        PROD_TIME   equal 100000    # run simulation for # timesteps in total
variable	OUT_TIME    equal  10000    # dt between thermo output
variable	X_LENGTH    equal     32    # length of x side of the box
variable	Y_LENGTH    equal     32    # length of y side of the box
variable	Z_LENGTH    equal     32    # length of z side of the box

##################################################################################
#                                 Code                                           #
##################################################################################

units           real
atom_style      full
dimension       3
boundary        p p p

lattice         sc 6.000
Lattice spacing in x,y,z = 6 6 6
variable        box_length equal 32
region          box block 0 32 0 32 0 32
region          start_box block 0 32 0 32 0 32
create_box      6 box bond/types 5                                     angle/types 7                                    dihedral/types 4                                 extra/bond/per/atom 3                            extra/special/per/atom 7                         extra/angle/per/atom 6                           extra/dihedral/per/atom 9
Created orthogonal box = (0 0 0) to (192 192 192)
molecule        CH3CH2OH data.ethanol
Read molecule template CH3CH2OH:
  1 molecules
  0 fragments
  9 atoms with max type 6
  8 bonds with max type 5
  13 angles with max type 7
  12 dihedrals with max type 4
  0 impropers with max type 0
create_atoms    0 region start_box mol CH3CH2OH 6871
Created 294912 atoms

######################################################
# Coefficients for bonds, angles, diheadrals & pairs #
######################################################

pair_style      lj/cut/coul/long 12.0
bond_style      harmonic
angle_style     harmonic
dihedral_style  opls
kspace_style    pppm      0.0001

mass		1 12.011000 # ECH
mass		2 12.011000 # ECO
mass		3  1.008000 # EHA
mass		4  1.008000 # EHC
mass		5  1.008000 # EHO
mass		6 15.999000 # EOH

set		type 1 charge -0.18
Setting atom values ...
  32768 settings made for charge
set		type 2 charge  0.145
Setting atom values ...
  32768 settings made for charge
set		type 3 charge  0.06
Setting atom values ...
  65536 settings made for charge
set		type 4 charge  0.06
Setting atom values ...
  98304 settings made for charge
set		type 5 charge  0.418
Setting atom values ...
  32768 settings made for charge
set		type 6 charge -0.683
Setting atom values ...
  32768 settings made for charge

pair_coeff      1  1  0.066  3.5
pair_coeff	2  2  0.066  3.5
pair_coeff	3  3  0.03   2.5
pair_coeff      4  4  0.03   2.5
pair_coeff      5  5  0.03   2.5
pair_coeff      6  6  0.17   3.12

bond_coeff      1  134.0  1.529
bond_coeff      2  170.0  1.09
bond_coeff      3  170.0  1.09
bond_coeff      4  160    1.41
bond_coeff      5  276.5  0.945

angle_coeff     1  18.75  110.7
angle_coeff     2  25.0   109.5
angle_coeff     3  18.75  110.7
angle_coeff     4  27.5   108.5
angle_coeff     5  16.5   107.8
angle_coeff     6  17.5   109.5
angle_coeff     7  16.5   107.8

dihedral_coeff	1  -0.356  -0.174  0.492  0.0
dihedral_coeff  2   0.0      0.0   0.352  0.0
dihedral_coeff  3   0.0      0.0   0.3    0.0
dihedral_coeff  4   0.0      0.0   0.468  0.0

#####################################################
# Neighbour list: distance = LJ cutoff + 2.0 = 14.0 #
#####################################################
neighbor        2.0 bin

###############################
# List renewed every timestep #
###############################
neigh_modify    delay 10 every 5 check no

##############################
# Nose-Hoover thermobarostat #
##############################

velocity	all create 300 4928459 rot yes dist gaussian
fix		1 all nvt temp 300 300 20.0

#########################################
# Rebalance number of particles per CPU #
# Can speed up on muliple cores         #
#########################################
#fix    		bal all balance 1000 1.05 shift xy 10 1.05

thermo_style    custom step cpu temp etotal epair elong evdwl vol lx press
thermo		10000

timestep	1

run		1000
PPPM initialization ...
  G vector (1/distance) = 0.18199716
  grid = 50 50 50
  stencil order = 5
  estimated absolute RMS force accuracy = 0.037173906
  estimated relative force accuracy = 0.00011194811
  3d grid and FFT values/proc = 1728 400
Generated 15 of 15 mixed pair_coeff terms from geometric mixing rule
  update every 5 steps, delay 10 steps, check no
Step          CPU            Temp          TotEng         E_pair         E_long         E_vdwl         Volume           Lx           Press
0   0              300            447327.7       175889.01     -790673.05     -43731.476      7077888        192           -232.75202
Loop time of 5.0666 on 512 procs for 1000 steps with 294912 atoms

run		100000
PPPM initialization ...
  G vector (1/distance) = 0.18199716
  grid = 50 50 50
  stencil order = 5
  estimated absolute RMS force accuracy = 0.037173906
  estimated relative force accuracy = 0.00011194811
  3d grid and FFT values/proc = 1728 400
Generated 15 of 15 mixed pair_coeff terms from geometric mixing rule
Step          CPU            Temp          TotEng         E_pair         E_long         E_vdwl         Volume           Lx           Press
1000   0              298.49356      566574.1       133863.15     -793136.65     -60220.74       7077888        192            731.89214
Averages over the last 6 of 12 rows, steps 60000 to 101000:
Temp TotEng E_pair E_long E_vdwl Volume Lx Press
299.933 493406 17015.3 -794506 -122213 7.07789e+06 192 -51.473
Loop time of 1325.29 on 512 procs for 100000 steps with 294912 atoms
